LTspice 24.0.11 for Windows
Circuit: * C:\users\cod3r\Favorites\Elektronika\20_Tranzystor_wspolny_emiter\schemat.asc
Start Time: Fri May 17 00:04:50 2024
Warning: Multiple definitions of model "2scr375p" Type: BJT
Warning: Multiple definitions of model "bc857b" Type: BJT
Warning: Multiple definitions of model "bc847c" Type: BJT
Warning: Multiple definitions of model "bc847b" Type: BJT
solver = Normal
Maximum thread count: 8
tnom = 27
temp = 27
method = modified trap
WARNING: Node OUT is floating.

WARNING: Less than two connections to node out.  This node is used by c2.
Direct Newton iteration for .op point succeeded.
Total elapsed time: 0.090 seconds.

