LTspice 24.0.11 for Windows
Circuit: * C:\users\cod3r\Favorites\Elektronika\4_stabilizator\schemat.asc
Start Time: Sat Apr 20 18:05:58 2024
solver = Normal
Maximum thread count: 8
tnom = 27
temp = 27
method = modified trap
Direct Newton iteration for .op point succeeded.
Total elapsed time: 0.476 seconds.

