LTspice 24.0.11 for Windows
Circuit: * C:\users\cod3r\Favorites\Elektronika\19_Tranzystor_zrodlo_pradowe\schemat.asc
Start Time: Thu May 16 23:04:49 2024
Warning: Multiple definitions of model "2scr375p" Type: BJT
Warning: Multiple definitions of model "bc857b" Type: BJT
Warning: Multiple definitions of model "bc847c" Type: BJT
Warning: Multiple definitions of model "bc847b" Type: BJT
solver = Normal
Maximum thread count: 8
tnom = 27
temp = 27
method = modified trap
Total elapsed time: 0.073 seconds.

