LTspice 24.0.11 for Windows
Circuit: * C:\users\cod3r\Favorites\Elektronika\15_Dioda_Charakterystyka\schemat.asc
Start Time: Tue May  7 18:09:29 2024
solver = Normal
Maximum thread count: 8
tnom = 27
temp = 27
method = modified trap
.OP point found by inspection.
Total elapsed time: 0.087 seconds.

