LTspice 24.0.11 for Windows
Circuit: * C:\users\cod3r\Favorites\Elektronika\15_Dioda_Charakterystyka\schemat_zenner.asc
Start Time: Mon May  6 23:07:00 2024
solver = Normal
Maximum thread count: 8
tnom = 27
temp = 27
method = modified trap
Total elapsed time: 0.078 seconds.

