LTspice 24.0.11 for Windows
Circuit: * C:\users\cod3r\Favorites\Elektronika\15_Tranzystor_Charakterystyka\schemat.asc
Start Time: Tue May  7 22:48:04 2024
Warning: Multiple definitions of model "2scr375p" Type: BJT
Warning: Multiple definitions of model "bc857b" Type: BJT
Warning: Multiple definitions of model "bc847c" Type: BJT
Warning: Multiple definitions of model "bc847b" Type: BJT
solver = Normal
Maximum thread count: 8



.step i=0.001



.step i=0.021



.step i=0.041



.step i=0.061



.step i=0.081
tnom = 27
temp = 27
method = modified trap
.step i=0.1
Total elapsed time: 0.326 seconds.

