LTspice 24.0.11 for Windows
Circuit: * C:\users\cod3r\Favorites\Elektronika\9_Filtr_RC\schemat.asc
Start Time: Sun Apr 21 22:24:17 2024
Error on line 2 : v1 n001 0 5 ac ac1
	 Unknown parameter "ac1"
solver = Normal
Maximum thread count: 8
tnom = 27
temp = 27
method = modified trap
Direct Newton iteration for .op point succeeded.
Total elapsed time: 0.061 seconds.

