LTspice 24.0.11 for Windows
Circuit: * Z:\home\cod3r\Data\Elektronika\1_dzielnik_napiecia\1.asc
Start Time: Sat Apr 20 16:59:25 2024
solver = Normal
Maximum thread count: 8
tnom = 27
temp = 27
method = modified trap
.OP point found by inspection.
Total elapsed time: 0.060 seconds.

