LTspice 24.0.11 for Windows
Circuit: * C:\users\cod3r\Favorites\Elektronika\2_dzielnik_dioda\schemat.asc
Start Time: Sat Apr 20 17:16:25 2024
solver = Normal
Maximum thread count: 8
tnom = 27
temp = 27
method = modified trap
.OP point found by inspection.
Total elapsed time: 0.233 seconds.

