LTspice 24.0.11 for Windows
Circuit: * C:\users\cod3r\Favorites\Elektronika\3_dioda_zaporowo\schemat.asc
Start Time: Sat Apr 20 17:42:01 2024
solver = Normal
Maximum thread count: 8
tnom = 27
temp = 27
method = modified trap
.OP point found by inspection.
Total elapsed time: 0.230 seconds.

